/*--------------------------------*- C++ -*----------------------------------*\
  =========                 |
  \\      /  F ield         | OpenFOAM: The Open Source CFD Toolbox
   \\    /   O peration     | Website:  https://openfoam.org
    \\  /    A nd           | Version:  9
     \\/     M anipulation  |
\*---------------------------------------------------------------------------*/
FoamFile
{
    format      ascii;
    class       polyBoundaryMesh;
    location    "constant/polyMesh";
    object      boundary;
}
// * * * * * * * * * * * * * * * * * * * * * * * * * * * * * * * * * * * * * //

3
(
    inlet
    {
        type            patch;
        nFaces          4;
        startFace       414876;
    }
    outlet
    {
        type            patch;
        nFaces          1764;
        startFace       414880;
    }
    walls
    {
        type            wall;
        inGroups        List<word> 1(wall);
        nFaces          15200;
        startFace       416644;
    }
)

// ************************************************************************* //
